@<TRIPOS>MOLECULE
*****
 50 49 0 0 0
SMALL
GASTEIGER

@<TRIPOS>ATOM
      1  CA        -8.9394  -11.1040  -30.1059 C.3   221  PL3221     -0.0531
      2  CB        -8.8903  -12.3518  -31.0188 C.3   221  PL3221     -0.0531
      3  CG       -11.4416  -12.6815  -36.5423 C.3   221  PL3221     -0.0653
      4  CD        -9.8946  -13.5510  -33.0313 C.3   221  PL3221     -0.0531
      5  CE       -10.9132  -13.5015  -34.1932 C.3   221  PL3221     -0.0533
      6  C1        -0.0640  -10.9632  -36.6840 C.3   221  PL3221      0.0829
      7  O1         1.3552  -11.1106  -36.6664 O.3   221  PL3221     -0.2348
      8  C2        -0.5819  -10.8015  -35.2423 C.3   221  PL3221     -0.0265
      9  C3        -2.1171  -10.6461  -35.2182 C.3   221  PL3221     -0.0509
     10  C4        -2.6422  -10.5095  -33.7733 C.3   221  PL3221     -0.0530
     11  C5        -4.1808  -10.3834  -33.7434 C.3   221  PL3221     -0.0531
     12  C6        -4.6976  -10.2561  -32.2949 C.3   221  PL3221     -0.0531
     13  C7        -6.2377  -10.1543  -32.2476 C.3   221  PL3221     -0.0531
     14  C8        -6.7269   -9.9460  -30.7970 C.3   221  PL3221     -0.0531
     15  C9        -8.2688   -9.8372  -30.6923 C.3   221  PL3221     -0.0531
     16  CC        -9.7795  -12.2074  -32.2750 C.3   221  PL3221     -0.0531
     17  CF       -10.4278  -12.6449  -35.3837 C.3   221  PL3221     -0.0559
     18 HGC3      -11.5921  -13.7055  -36.8924 H     221  PL3221      0.0230
     19 HGC2      -12.4058  -12.2783  -36.2236 H     221  PL3221      0.0230
     20 HGC1      -11.0796  -12.0826  -37.3809 H     221  PL3221      0.0230
     21 HFC2      -10.2855  -11.6084  -35.0710 H     221  PL3221      0.0263
     22 HFC1       -9.4644  -13.0198  -35.7379 H     221  PL3221      0.0263
     23 HEC2      -11.0868  -14.5225  -34.5423 H     221  PL3221      0.0265
     24 HEC1      -11.8709  -13.1222  -33.8274 H     221  PL3221      0.0265
     25 HDC2       -8.9141  -13.8537  -33.4074 H     221  PL3221      0.0265
     26 HDC1      -10.2212  -14.3231  -32.3301 H     221  PL3221      0.0265
     27 HCC2      -10.7778  -11.8790  -31.9748 H     221  PL3221      0.0265
     28 HCC1       -9.3630  -11.4437  -32.9345 H     221  PL3221      0.0265
     29 HBC2       -7.8613  -12.5769  -31.3064 H     221  PL3221      0.0265
     30 HBC1       -9.2463  -13.2041  -30.4345 H     221  PL3221      0.0265
     31 HAC2       -8.4634  -11.3459  -29.1524 H     221  PL3221      0.0265
     32 HAC1       -9.9835  -10.8757  -29.8777 H     221  PL3221      0.0265
     33 H9C2       -8.4984   -9.0083  -30.0181 H     221  PL3221      0.0265
     34 H9C1       -8.7096   -9.5734  -31.6561 H     221  PL3221      0.0265
     35 H8C2       -6.3576  -10.7515  -30.1571 H     221  PL3221      0.0265
     36 H8C1       -6.2894   -9.0192  -30.4174 H     221  PL3221      0.0265
     37 H7C2       -6.5654   -9.3128  -32.8632 H     221  PL3221      0.0265
     38 H7C1       -6.6773  -11.0611  -32.6680 H     221  PL3221      0.0265
     39 H6C2       -4.3745  -11.1237  -31.7140 H     221  PL3221      0.0265
     40 H6C1       -4.2587   -9.3682  -31.8325 H     221  PL3221      0.0265
     41 H5C2       -4.4864   -9.5054  -34.3182 H     221  PL3221      0.0265
     42 H5C1       -4.6290  -11.2613  -34.2151 H     221  PL3221      0.0265
     43 H4C2       -2.3385  -11.3838  -33.1919 H     221  PL3221      0.0265
     44 H4C1       -2.1940   -9.6296  -33.3044 H     221  PL3221      0.0265
     45 H3C2       -2.4036   -9.7638  -35.7963 H     221  PL3221      0.0266
     46 H3C1       -2.5777  -11.5166  -35.6922 H     221  PL3221      0.0266
     47 H2C2       -0.2919  -11.6755  -34.6537 H     221  PL3221      0.0288
     48 H2C1       -0.1161   -9.9249  -34.7847 H     221  PL3221      0.0288
     49 H1C2       -0.3283  -10.0827  -37.2758 H     221  PL3221      0.0591
     50 H1C1       -0.5127  -11.8482  -37.1432 H     221  PL3221      0.0591
@<TRIPOS>BOND
     1    20     3    1
     2    49     6    1
     3    18     3    1
     4     3    19    1
     5     3    17    1
     6     7     6    1
     7     6    50    1
     8     6     8    1
     9    22    17    1
    10    45     9    1
    11    48     8    1
    12    17    21    1
    13    17     5    1
    14    46     9    1
    15     8     9    1
    16     8    47    1
    17     9    10    1
    18    42    11    1
    19     5    23    1
    20     5    24    1
    21     5     4    1
    22    41    11    1
    23    10    11    1
    24    10    44    1
    25    10    43    1
    26    11    12    1
    27    25     4    1
    28    28    16    1
    29     4    26    1
    30     4    16    1
    31    38    13    1
    32    16    27    1
    33    16     2    1
    34    12    39    1
    35    12    13    1
    36    12    40    1
    37    13    37    1
    38    13    14    1
    39    29     2    1
    40     2    30    1
    41     2     1    1
    42    34    15    1
    43    32     1    1
    44    35    14    1
    45    14    15    1
    46    14    36    1
    47     1    15    1
    48     1    31    1
    49    15    33    1
