@<TRIPOS>MOLECULE
*****
 50 49 0 0 0
SMALL
GASTEIGER

@<TRIPOS>ATOM
      1  CA        -8.9390  -11.1313  -30.1387 C.3   221  PL3221     -0.0531
      2  CB        -8.9030  -12.3662  -31.0711 C.3   221  PL3221     -0.0531
      3  CG       -11.5454  -12.7772  -36.5621 C.3   221  PL3221     -0.0653
      4  CD        -9.9958  -13.5676  -33.0342 C.3   221  PL3221     -0.0531
      5  CE       -11.0309  -13.5072  -34.1811 C.3   221  PL3221     -0.0533
      6  C1        -0.0841  -11.0473  -36.6964 C.3   221  PL3221      0.0829
      7  O1         1.3323  -11.2167  -36.7211 O.3   221  PL3221     -0.2348
      8  C2        -0.5460  -10.7782  -35.2517 C.3   221  PL3221     -0.0265
      9  C3        -2.0731  -10.5695  -35.1917 C.3   221  PL3221     -0.0509
     10  C4        -2.5656  -10.4032  -33.7386 C.3   221  PL3221     -0.0530
     11  C5        -4.0951  -10.2029  -33.6935 C.3   221  PL3221     -0.0531
     12  C6        -4.6206  -10.1785  -32.2432 C.3   221  PL3221     -0.0531
     13  C7        -6.1553  -10.0176  -32.2111 C.3   221  PL3221     -0.0531
     14  C8        -6.6875  -10.0256  -30.7625 C.3   221  PL3221     -0.0531
     15  C9        -8.2290   -9.8779  -30.7044 C.3   221  PL3221     -0.0531
     16  CC        -9.8242  -12.2149  -32.3044 C.3   221  PL3221     -0.0531
     17  CF       -10.5014  -12.7680  -35.4295 C.3   221  PL3221     -0.0559
     18 HGC3      -11.8089  -13.8013  -36.8373 H     221  PL3221      0.0230
     19 HGC2      -12.4545  -12.2564  -36.2525 H     221  PL3221      0.0230
     20 HGC1      -11.1479  -12.2766  -37.4478 H     221  PL3221      0.0230
     21 HFC2      -10.2538  -11.7339  -35.1809 H     221  PL3221      0.0263
     22 HFC1       -9.5874  -13.2523  -35.7820 H     221  PL3221      0.0263
     23 HEC2      -11.2903  -14.5304  -34.4647 H     221  PL3221      0.0265
     24 HEC1      -11.9493  -13.0324  -33.8261 H     221  PL3221      0.0265
     25 HDC2       -9.0324  -13.9130  -33.4176 H     221  PL3221      0.0265
     26 HDC1      -10.3386  -14.3134  -32.3125 H     221  PL3221      0.0265
     27 HCC2      -10.8057  -11.8587  -31.9812 H     221  PL3221      0.0265
     28 HCC1       -9.4093  -11.4699  -32.9864 H     221  PL3221      0.0265
     29 HBC2       -7.8802  -12.5781  -31.3908 H     221  PL3221      0.0265
     30 HBC1       -9.2370  -13.2285  -30.4888 H     221  PL3221      0.0265
     31 HAC2       -8.4793  -11.3955  -29.1830 H     221  PL3221      0.0265
     32 HAC1       -9.9801  -10.8817  -29.9197 H     221  PL3221      0.0265
     33 H9C2       -8.4630   -9.0375  -30.0464 H     221  PL3221      0.0265
     34 H9C1       -8.6372   -9.6190  -31.6843 H     221  PL3221      0.0265
     35 H8C2       -6.3707  -10.9428  -30.2591 H     221  PL3221      0.0265
     36 H8C1       -6.2328   -9.1958  -30.2152 H     221  PL3221      0.0265
     37 H7C2       -6.4316   -9.0766  -32.6943 H     221  PL3221      0.0265
     38 H7C1       -6.6207  -10.8291  -32.7763 H     221  PL3221      0.0265
     39 H6C2       -4.3429  -11.1089  -31.7407 H     221  PL3221      0.0265
     40 H6C1       -4.1521   -9.3555  -31.6968 H     221  PL3221      0.0265
     41 H5C2       -4.3550   -9.2663  -34.1941 H     221  PL3221      0.0265
     42 H5C1       -4.5842  -11.0147  -34.2381 H     221  PL3221      0.0265
     43 H4C2       -2.2967  -11.2927  -33.1628 H     221  PL3221      0.0265
     44 H4C1       -2.0693   -9.5466  -33.2745 H     221  PL3221      0.0265
     45 H3C2       -2.3433   -9.6853  -35.7751 H     221  PL3221      0.0266
     46 H3C1       -2.5736  -11.4294  -35.6448 H     221  PL3221      0.0266
     47 H2C2       -0.2639  -11.6245  -34.6199 H     221  PL3221      0.0288
     48 H2C1       -0.0384   -9.8912  -34.8637 H     221  PL3221      0.0288
     49 H1C2       -0.3590  -10.2064  -37.3390 H     221  PL3221      0.0591
     50 H1C1       -0.5622  -11.9548  -37.0754 H     221  PL3221      0.0591
@<TRIPOS>BOND
     1    20     3    1
     2    49     6    1
     3    18     3    1
     4     3    19    1
     5     3    17    1
     6     7     6    1
     7     6    50    1
     8     6     8    1
     9    22    17    1
    10    45     9    1
    11    48     8    1
    12    17    21    1
    13    17     5    1
    14    46     9    1
    15     8     9    1
    16     8    47    1
    17     9    10    1
    18    42    11    1
    19     5    23    1
    20     5    24    1
    21     5     4    1
    22    41    11    1
    23    10    11    1
    24    10    44    1
    25    10    43    1
    26    11    12    1
    27    25     4    1
    28    28    16    1
    29     4    16    1
    30     4    26    1
    31    38    13    1
    32    16    27    1
    33    16     2    1
    34    12    39    1
    35    12    13    1
    36    12    40    1
    37    13    37    1
    38    13    14    1
    39    29     2    1
    40     2    30    1
    41     2     1    1
    42    34    15    1
    43    32     1    1
    44    35    14    1
    45    14    15    1
    46    14    36    1
    47     1    15    1
    48     1    31    1
    49    15    33    1
