@<TRIPOS>MOLECULE
*****
   50    49     1     0     0
SMALL
bcc


@<TRIPOS>ATOM
      1 CA          -8.9390   -11.1310   -30.1390 c3       221 PL3      -0.076400
      2 CB          -8.9030   -12.3660   -31.0710 c3       221 PL3      -0.078400
      3 CG         -11.5450   -12.7770   -36.5620 c3       221 PL3      -0.092100
      4 CD          -9.9960   -13.5680   -33.0340 c3       221 PL3      -0.078400
      5 CE         -11.0310   -13.5070   -34.1810 c3       221 PL3      -0.076400
      6 C1          -0.0840   -11.0470   -36.6960 c3       221 PL3       0.436100
      7 O1           1.3320   -11.2170   -36.7210 o        221 PL3      -0.905500
      8 C2          -0.5460   -10.7780   -35.2520 c3       221 PL3      -0.160400
      9 C3          -2.0730   -10.5690   -35.1920 c3       221 PL3      -0.063400
     10 C4          -2.5660   -10.4030   -33.7390 c3       221 PL3      -0.080400
     11 C5          -4.0950   -10.2030   -33.6940 c3       221 PL3      -0.078400
     12 C6          -4.6210   -10.1780   -32.2430 c3       221 PL3      -0.079400
     13 C7          -6.1550   -10.0180   -32.2110 c3       221 PL3      -0.079400
     14 C8          -6.6880   -10.0260   -30.7620 c3       221 PL3      -0.079400
     15 C9          -8.2290    -9.8780   -30.7040 c3       221 PL3      -0.079400
     16 CC          -9.8240   -12.2150   -32.3040 c3       221 PL3      -0.078400
     17 CF         -10.5010   -12.7680   -35.4290 c3       221 PL3      -0.082400
     18 HGC3       -11.8090   -13.8010   -36.8370 hc       221 PL3       0.030367
     19 HGC2       -12.4540   -12.2560   -36.2520 hc       221 PL3       0.030367
     20 HGC1       -11.1480   -12.2770   -37.4480 hc       221 PL3       0.030367
     21 HFC2       -10.2540   -11.7340   -35.1810 hc       221 PL3       0.042700
     22 HFC1        -9.5870   -13.2520   -35.7820 hc       221 PL3       0.042700
     23 HEC2       -11.2900   -14.5300   -34.4650 hc       221 PL3       0.035200
     24 HEC1       -11.9490   -13.0320   -33.8260 hc       221 PL3       0.035200
     25 HDC2        -9.0320   -13.9130   -33.4180 hc       221 PL3       0.038700
     26 HDC1       -10.3390   -14.3130   -32.3120 hc       221 PL3       0.038700
     27 HCC2       -10.8060   -11.8590   -31.9810 hc       221 PL3       0.039700
     28 HCC1        -9.4090   -11.4700   -32.9860 hc       221 PL3       0.039700
     29 HBC2        -7.8800   -12.5780   -31.3910 hc       221 PL3       0.039200
     30 HBC1        -9.2370   -13.2290   -30.4890 hc       221 PL3       0.039200
     31 HAC2        -8.4790   -11.3960   -29.1830 hc       221 PL3       0.034700
     32 HAC1        -9.9800   -10.8820   -29.9200 hc       221 PL3       0.034700
     33 H9C2        -8.4630    -9.0370   -30.0460 hc       221 PL3       0.037700
     34 H9C1        -8.6370    -9.6190   -31.6840 hc       221 PL3       0.037700
     35 H8C2        -6.3710   -10.9430   -30.2590 hc       221 PL3       0.037200
     36 H8C1        -6.2330    -9.1960   -30.2150 hc       221 PL3       0.037200
     37 H7C2        -6.4320    -9.0770   -32.6940 hc       221 PL3       0.036700
     38 H7C1        -6.6210   -10.8290   -32.7760 hc       221 PL3       0.036700
     39 H6C2        -4.3430   -11.1090   -31.7410 hc       221 PL3       0.034700
     40 H6C1        -4.1520    -9.3550   -31.6970 hc       221 PL3       0.034700
     41 H5C2        -4.3550    -9.2660   -34.1940 hc       221 PL3       0.032700
     42 H5C1        -4.5840   -11.0150   -34.2380 hc       221 PL3       0.032700
     43 H4C2        -2.2970   -11.2930   -33.1630 hc       221 PL3       0.028700
     44 H4C1        -2.0690    -9.5470   -33.2750 hc       221 PL3       0.028700
     45 H3C2        -2.3430    -9.6850   -35.7750 hc       221 PL3       0.021700
     46 H3C1        -2.5740   -11.4290   -35.6450 hc       221 PL3       0.021700
     47 H2C2        -0.2640   -11.6240   -34.6200 hc       221 PL3       0.009700
     48 H2C1        -0.0380    -9.8910   -34.8640 hc       221 PL3       0.009700
     49 H1C2        -0.3590   -10.2060   -37.3390 h1       221 PL3      -0.148300
     50 H1C1        -0.5620   -11.9550   -37.0750 h1       221 PL3      -0.148300
@<TRIPOS>BOND
     1    20     3 1   
     2    49     6 1   
     3    18     3 1   
     4     3    19 1   
     5     3    17 1   
     6     7     6 1   
     7     6    50 1   
     8     6     8 1   
     9    22    17 1   
    10    45     9 1   
    11    48     8 1   
    12    17    21 1   
    13    17     5 1   
    14    46     9 1   
    15     8     9 1   
    16     8    47 1   
    17     9    10 1   
    18    42    11 1   
    19     5    23 1   
    20     5    24 1   
    21     5     4 1   
    22    41    11 1   
    23    10    11 1   
    24    10    44 1   
    25    10    43 1   
    26    11    12 1   
    27    25     4 1   
    28    28    16 1   
    29     4    16 1   
    30     4    26 1   
    31    38    13 1   
    32    16    27 1   
    33    16     2 1   
    34    12    39 1   
    35    12    13 1   
    36    12    40 1   
    37    13    37 1   
    38    13    14 1   
    39    29     2 1   
    40     2    30 1   
    41     2     1 1   
    42    34    15 1   
    43    32     1 1   
    44    35    14 1   
    45    14    15 1   
    46    14    36 1   
    47     1    15 1   
    48     1    31 1   
    49    15    33 1   
@<TRIPOS>SUBSTRUCTURE
     1 PL3         1 TEMP              0 ****  ****    0 ROOT
